[root]
type=Root
children=system
eventq_index=0
full_system=false
sim_quantum=0
time_sync_enable=false
time_sync_period=100000000000
time_sync_spin_threshold=100000000

[system]
type=System
children=caches clk_domain cpu0 cpu1 cpu2 cpu3 dvfs_handler mem_ctrl redirect_paths0 redirect_paths1 redirect_paths2 workload
byte_order=little
cache_line_size=64
eventq_index=0
exit_on_work_items=false
init_param=0
kvm_vm=Null
m5ops_base=4294901760
mem_mode=timing
mem_ranges=0:536870912
memories=system.mem_ctrl.dram
mmap_using_noreserve=false
multi_thread=false
num_work_ids=16
readfile=
redirect_paths=system.redirect_paths0 system.redirect_paths1 system.redirect_paths2
shared_backstore=
symbolfile=
thermal_components=
thermal_model=Null
work_begin_ckpt_count=0
work_begin_cpu_id_exit=-1
work_begin_exit_count=0
work_cpus_ckpt_count=0
work_end_ckpt_count=0
work_end_exit_count=0
work_item_id=-1
workload=system.workload
system_port=system.caches.sys_port_proxy.in_ports[0]

[system.caches]
type=RubySystem
children=controllers0 controllers1 controllers2 controllers3 controllers4 network power_state sequencers0 sequencers1 sequencers2 sequencers3 sys_port_proxy
access_backing_store=false
all_instructions=false
block_size_bytes=64
clk_domain=system.clk_domain
eventq_index=0
hot_lines=false
memory_size_bits=64
num_of_sequencers=4
number_of_virtual_networks=3
phys_mem=Null
power_model=
power_state=system.caches.power_state
randomization=false
system=system

[system.caches.controllers0]
type=L1Cache_Controller
children=cacheMemory forwardFromDir mandatoryQueue power_state requestToDir responseFromDirOrSibling responseToDirOrSibling
addr_ranges=0:18446744073709551615
buffer_size=0
cacheMemory=system.caches.controllers0.cacheMemory
clk_domain=system.clk_domain
cluster_id=0
downstream_destinations=
eventq_index=0
forwardFromDir=system.caches.controllers0.forwardFromDir
mandatoryQueue=system.caches.controllers0.mandatoryQueue
mandatory_queue_latency=1
number_of_TBEs=256
power_model=
power_state=system.caches.controllers0.power_state
recycle_latency=10
requestToDir=system.caches.controllers0.requestToDir
responseFromDirOrSibling=system.caches.controllers0.responseFromDirOrSibling
responseToDirOrSibling=system.caches.controllers0.responseToDirOrSibling
ruby_system=system.caches
send_evictions=true
sequencer=system.caches.sequencers0
system=system
transitions_per_cycle=32
version=0

[system.caches.controllers0.cacheMemory]
type=RubyCache
children=replacement_policy
assoc=8
block_size=0
dataAccessLatency=1
dataArrayBanks=1
eventq_index=0
is_icache=false
replacement_policy=system.caches.controllers0.cacheMemory.replacement_policy
resourceStalls=false
ruby_system=system.caches
size=16384
start_index_bit=6
tagAccessLatency=1
tagArrayBanks=1

[system.caches.controllers0.cacheMemory.replacement_policy]
type=TreePLRURP
eventq_index=0
num_leaves=8

[system.caches.controllers0.forwardFromDir]
type=MessageBuffer
allow_zero_latency=false
buffer_size=0
eventq_index=0
ordered=true
randomization=ruby_system
in_port=system.caches.network.out_port[0]

[system.caches.controllers0.mandatoryQueue]
type=MessageBuffer
allow_zero_latency=false
buffer_size=0
eventq_index=0
ordered=false
randomization=ruby_system

[system.caches.controllers0.power_state]
type=PowerState
clk_gate_bins=20
clk_gate_max=1000000000000
clk_gate_min=1000
default_state=UNDEFINED
eventq_index=0
leaders=
possible_states=

[system.caches.controllers0.requestToDir]
type=MessageBuffer
allow_zero_latency=false
buffer_size=0
eventq_index=0
ordered=true
randomization=ruby_system
out_port=system.caches.network.in_port[0]

[system.caches.controllers0.responseFromDirOrSibling]
type=MessageBuffer
allow_zero_latency=false
buffer_size=0
eventq_index=0
ordered=true
randomization=ruby_system
in_port=system.caches.network.out_port[1]

[system.caches.controllers0.responseToDirOrSibling]
type=MessageBuffer
allow_zero_latency=false
buffer_size=0
eventq_index=0
ordered=true
randomization=ruby_system
out_port=system.caches.network.in_port[1]

[system.caches.controllers1]
type=L1Cache_Controller
children=cacheMemory forwardFromDir mandatoryQueue power_state requestToDir responseFromDirOrSibling responseToDirOrSibling
addr_ranges=0:18446744073709551615
buffer_size=0
cacheMemory=system.caches.controllers1.cacheMemory
clk_domain=system.clk_domain
cluster_id=0
downstream_destinations=
eventq_index=0
forwardFromDir=system.caches.controllers1.forwardFromDir
mandatoryQueue=system.caches.controllers1.mandatoryQueue
mandatory_queue_latency=1
number_of_TBEs=256
power_model=
power_state=system.caches.controllers1.power_state
recycle_latency=10
requestToDir=system.caches.controllers1.requestToDir
responseFromDirOrSibling=system.caches.controllers1.responseFromDirOrSibling
responseToDirOrSibling=system.caches.controllers1.responseToDirOrSibling
ruby_system=system.caches
send_evictions=true
sequencer=system.caches.sequencers1
system=system
transitions_per_cycle=32
version=1

[system.caches.controllers1.cacheMemory]
type=RubyCache
children=replacement_policy
assoc=8
block_size=0
dataAccessLatency=1
dataArrayBanks=1
eventq_index=0
is_icache=false
replacement_policy=system.caches.controllers1.cacheMemory.replacement_policy
resourceStalls=false
ruby_system=system.caches
size=16384
start_index_bit=6
tagAccessLatency=1
tagArrayBanks=1

[system.caches.controllers1.cacheMemory.replacement_policy]
type=TreePLRURP
eventq_index=0
num_leaves=8

[system.caches.controllers1.forwardFromDir]
type=MessageBuffer
allow_zero_latency=false
buffer_size=0
eventq_index=0
ordered=true
randomization=ruby_system
in_port=system.caches.network.out_port[2]

[system.caches.controllers1.mandatoryQueue]
type=MessageBuffer
allow_zero_latency=false
buffer_size=0
eventq_index=0
ordered=false
randomization=ruby_system

[system.caches.controllers1.power_state]
type=PowerState
clk_gate_bins=20
clk_gate_max=1000000000000
clk_gate_min=1000
default_state=UNDEFINED
eventq_index=0
leaders=
possible_states=

[system.caches.controllers1.requestToDir]
type=MessageBuffer
allow_zero_latency=false
buffer_size=0
eventq_index=0
ordered=true
randomization=ruby_system
out_port=system.caches.network.in_port[2]

[system.caches.controllers1.responseFromDirOrSibling]
type=MessageBuffer
allow_zero_latency=false
buffer_size=0
eventq_index=0
ordered=true
randomization=ruby_system
in_port=system.caches.network.out_port[3]

[system.caches.controllers1.responseToDirOrSibling]
type=MessageBuffer
allow_zero_latency=false
buffer_size=0
eventq_index=0
ordered=true
randomization=ruby_system
out_port=system.caches.network.in_port[3]

[system.caches.controllers2]
type=L1Cache_Controller
children=cacheMemory forwardFromDir mandatoryQueue power_state requestToDir responseFromDirOrSibling responseToDirOrSibling
addr_ranges=0:18446744073709551615
buffer_size=0
cacheMemory=system.caches.controllers2.cacheMemory
clk_domain=system.clk_domain
cluster_id=0
downstream_destinations=
eventq_index=0
forwardFromDir=system.caches.controllers2.forwardFromDir
mandatoryQueue=system.caches.controllers2.mandatoryQueue
mandatory_queue_latency=1
number_of_TBEs=256
power_model=
power_state=system.caches.controllers2.power_state
recycle_latency=10
requestToDir=system.caches.controllers2.requestToDir
responseFromDirOrSibling=system.caches.controllers2.responseFromDirOrSibling
responseToDirOrSibling=system.caches.controllers2.responseToDirOrSibling
ruby_system=system.caches
send_evictions=true
sequencer=system.caches.sequencers2
system=system
transitions_per_cycle=32
version=2

[system.caches.controllers2.cacheMemory]
type=RubyCache
children=replacement_policy
assoc=8
block_size=0
dataAccessLatency=1
dataArrayBanks=1
eventq_index=0
is_icache=false
replacement_policy=system.caches.controllers2.cacheMemory.replacement_policy
resourceStalls=false
ruby_system=system.caches
size=16384
start_index_bit=6
tagAccessLatency=1
tagArrayBanks=1

[system.caches.controllers2.cacheMemory.replacement_policy]
type=TreePLRURP
eventq_index=0
num_leaves=8

[system.caches.controllers2.forwardFromDir]
type=MessageBuffer
allow_zero_latency=false
buffer_size=0
eventq_index=0
ordered=true
randomization=ruby_system
in_port=system.caches.network.out_port[4]

[system.caches.controllers2.mandatoryQueue]
type=MessageBuffer
allow_zero_latency=false
buffer_size=0
eventq_index=0
ordered=false
randomization=ruby_system

[system.caches.controllers2.power_state]
type=PowerState
clk_gate_bins=20
clk_gate_max=1000000000000
clk_gate_min=1000
default_state=UNDEFINED
eventq_index=0
leaders=
possible_states=

[system.caches.controllers2.requestToDir]
type=MessageBuffer
allow_zero_latency=false
buffer_size=0
eventq_index=0
ordered=true
randomization=ruby_system
out_port=system.caches.network.in_port[4]

[system.caches.controllers2.responseFromDirOrSibling]
type=MessageBuffer
allow_zero_latency=false
buffer_size=0
eventq_index=0
ordered=true
randomization=ruby_system
in_port=system.caches.network.out_port[5]

[system.caches.controllers2.responseToDirOrSibling]
type=MessageBuffer
allow_zero_latency=false
buffer_size=0
eventq_index=0
ordered=true
randomization=ruby_system
out_port=system.caches.network.in_port[5]

[system.caches.controllers3]
type=L1Cache_Controller
children=cacheMemory forwardFromDir mandatoryQueue power_state requestToDir responseFromDirOrSibling responseToDirOrSibling
addr_ranges=0:18446744073709551615
buffer_size=0
cacheMemory=system.caches.controllers3.cacheMemory
clk_domain=system.clk_domain
cluster_id=0
downstream_destinations=
eventq_index=0
forwardFromDir=system.caches.controllers3.forwardFromDir
mandatoryQueue=system.caches.controllers3.mandatoryQueue
mandatory_queue_latency=1
number_of_TBEs=256
power_model=
power_state=system.caches.controllers3.power_state
recycle_latency=10
requestToDir=system.caches.controllers3.requestToDir
responseFromDirOrSibling=system.caches.controllers3.responseFromDirOrSibling
responseToDirOrSibling=system.caches.controllers3.responseToDirOrSibling
ruby_system=system.caches
send_evictions=true
sequencer=system.caches.sequencers3
system=system
transitions_per_cycle=32
version=3

[system.caches.controllers3.cacheMemory]
type=RubyCache
children=replacement_policy
assoc=8
block_size=0
dataAccessLatency=1
dataArrayBanks=1
eventq_index=0
is_icache=false
replacement_policy=system.caches.controllers3.cacheMemory.replacement_policy
resourceStalls=false
ruby_system=system.caches
size=16384
start_index_bit=6
tagAccessLatency=1
tagArrayBanks=1

[system.caches.controllers3.cacheMemory.replacement_policy]
type=TreePLRURP
eventq_index=0
num_leaves=8

[system.caches.controllers3.forwardFromDir]
type=MessageBuffer
allow_zero_latency=false
buffer_size=0
eventq_index=0
ordered=true
randomization=ruby_system
in_port=system.caches.network.out_port[6]

[system.caches.controllers3.mandatoryQueue]
type=MessageBuffer
allow_zero_latency=false
buffer_size=0
eventq_index=0
ordered=false
randomization=ruby_system

[system.caches.controllers3.power_state]
type=PowerState
clk_gate_bins=20
clk_gate_max=1000000000000
clk_gate_min=1000
default_state=UNDEFINED
eventq_index=0
leaders=
possible_states=

[system.caches.controllers3.requestToDir]
type=MessageBuffer
allow_zero_latency=false
buffer_size=0
eventq_index=0
ordered=true
randomization=ruby_system
out_port=system.caches.network.in_port[6]

[system.caches.controllers3.responseFromDirOrSibling]
type=MessageBuffer
allow_zero_latency=false
buffer_size=0
eventq_index=0
ordered=true
randomization=ruby_system
in_port=system.caches.network.out_port[7]

[system.caches.controllers3.responseToDirOrSibling]
type=MessageBuffer
allow_zero_latency=false
buffer_size=0
eventq_index=0
ordered=true
randomization=ruby_system
out_port=system.caches.network.in_port[7]

[system.caches.controllers4]
type=Directory_Controller
children=directory forwardToCache power_state requestFromCache requestToMemory responseFromCache responseFromMemory responseToCache
addr_ranges=0:536870912
buffer_size=0
clk_domain=system.clk_domain
cluster_id=0
directory=system.caches.controllers4.directory
downstream_destinations=
eventq_index=0
forwardToCache=system.caches.controllers4.forwardToCache
mandatory_queue_latency=1
number_of_TBEs=256
power_model=
power_state=system.caches.controllers4.power_state
recycle_latency=10
requestFromCache=system.caches.controllers4.requestFromCache
requestToMemory=system.caches.controllers4.requestToMemory
responseFromCache=system.caches.controllers4.responseFromCache
responseFromMemory=system.caches.controllers4.responseFromMemory
responseToCache=system.caches.controllers4.responseToCache
ruby_system=system.caches
system=system
toMemLatency=1
transitions_per_cycle=32
version=0
memory_out_port=system.mem_ctrl.port

[system.caches.controllers4.directory]
type=RubyDirectoryMemory
addr_ranges=0:536870912
eventq_index=0

[system.caches.controllers4.forwardToCache]
type=MessageBuffer
allow_zero_latency=false
buffer_size=0
eventq_index=0
ordered=true
randomization=ruby_system
out_port=system.caches.network.in_port[9]

[system.caches.controllers4.power_state]
type=PowerState
clk_gate_bins=20
clk_gate_max=1000000000000
clk_gate_min=1000
default_state=UNDEFINED
eventq_index=0
leaders=
possible_states=

[system.caches.controllers4.requestFromCache]
type=MessageBuffer
allow_zero_latency=false
buffer_size=0
eventq_index=0
ordered=true
randomization=ruby_system
in_port=system.caches.network.out_port[8]

[system.caches.controllers4.requestToMemory]
type=MessageBuffer
allow_zero_latency=false
buffer_size=0
eventq_index=0
ordered=false
randomization=ruby_system

[system.caches.controllers4.responseFromCache]
type=MessageBuffer
allow_zero_latency=false
buffer_size=0
eventq_index=0
ordered=true
randomization=ruby_system
in_port=system.caches.network.out_port[9]

[system.caches.controllers4.responseFromMemory]
type=MessageBuffer
allow_zero_latency=false
buffer_size=0
eventq_index=0
ordered=false
randomization=ruby_system

[system.caches.controllers4.responseToCache]
type=MessageBuffer
allow_zero_latency=false
buffer_size=0
eventq_index=0
ordered=true
randomization=ruby_system
out_port=system.caches.network.in_port[8]

[system.caches.network]
type=SimpleNetwork
children=ext_links0 ext_links1 ext_links2 ext_links3 ext_links4 int_link_buffers000 int_link_buffers001 int_link_buffers002 int_link_buffers003 int_link_buffers004 int_link_buffers005 int_link_buffers006 int_link_buffers007 int_link_buffers008 int_link_buffers009 int_link_buffers010 int_link_buffers011 int_link_buffers012 int_link_buffers013 int_link_buffers014 int_link_buffers015 int_link_buffers016 int_link_buffers017 int_link_buffers018 int_link_buffers019 int_link_buffers020 int_link_buffers021 int_link_buffers022 int_link_buffers023 int_link_buffers024 int_link_buffers025 int_link_buffers026 int_link_buffers027 int_link_buffers028 int_link_buffers029 int_link_buffers030 int_link_buffers031 int_link_buffers032 int_link_buffers033 int_link_buffers034 int_link_buffers035 int_link_buffers036 int_link_buffers037 int_link_buffers038 int_link_buffers039 int_link_buffers040 int_link_buffers041 int_link_buffers042 int_link_buffers043 int_link_buffers044 int_link_buffers045 int_link_buffers046 int_link_buffers047 int_link_buffers048 int_link_buffers049 int_link_buffers050 int_link_buffers051 int_link_buffers052 int_link_buffers053 int_link_buffers054 int_link_buffers055 int_link_buffers056 int_link_buffers057 int_link_buffers058 int_link_buffers059 int_link_buffers060 int_link_buffers061 int_link_buffers062 int_link_buffers063 int_link_buffers064 int_link_buffers065 int_link_buffers066 int_link_buffers067 int_link_buffers068 int_link_buffers069 int_link_buffers070 int_link_buffers071 int_link_buffers072 int_link_buffers073 int_link_buffers074 int_link_buffers075 int_link_buffers076 int_link_buffers077 int_link_buffers078 int_link_buffers079 int_link_buffers080 int_link_buffers081 int_link_buffers082 int_link_buffers083 int_link_buffers084 int_link_buffers085 int_link_buffers086 int_link_buffers087 int_link_buffers088 int_link_buffers089 int_link_buffers090 int_link_buffers091 int_link_buffers092 int_link_buffers093 int_link_buffers094 int_link_buffers095 int_link_buffers096 int_link_buffers097 int_link_buffers098 int_link_buffers099 int_link_buffers100 int_link_buffers101 int_link_buffers102 int_link_buffers103 int_link_buffers104 int_link_buffers105 int_link_buffers106 int_link_buffers107 int_link_buffers108 int_link_buffers109 int_link_buffers110 int_link_buffers111 int_link_buffers112 int_link_buffers113 int_link_buffers114 int_link_buffers115 int_link_buffers116 int_link_buffers117 int_link_buffers118 int_link_buffers119 int_links00 int_links01 int_links02 int_links03 int_links04 int_links05 int_links06 int_links07 int_links08 int_links09 int_links10 int_links11 int_links12 int_links13 int_links14 int_links15 int_links16 int_links17 int_links18 int_links19 power_state routers0 routers1 routers2 routers3 routers4
adaptive_routing=false
buffer_size=0
clk_domain=system.clk_domain
control_msg_size=8
data_msg_size=64
endpoint_bandwidth=1000
eventq_index=0
ext_links=system.caches.network.ext_links0 system.caches.network.ext_links1 system.caches.network.ext_links2 system.caches.network.ext_links3 system.caches.network.ext_links4
int_link_buffers=system.caches.network.int_link_buffers000 system.caches.network.int_link_buffers001 system.caches.network.int_link_buffers002 system.caches.network.int_link_buffers003 system.caches.network.int_link_buffers004 system.caches.network.int_link_buffers005 system.caches.network.int_link_buffers006 system.caches.network.int_link_buffers007 system.caches.network.int_link_buffers008 system.caches.network.int_link_buffers009 system.caches.network.int_link_buffers010 system.caches.network.int_link_buffers011 system.caches.network.int_link_buffers012 system.caches.network.int_link_buffers013 system.caches.network.int_link_buffers014 system.caches.network.int_link_buffers015 system.caches.network.int_link_buffers016 system.caches.network.int_link_buffers017 system.caches.network.int_link_buffers018 system.caches.network.int_link_buffers019 system.caches.network.int_link_buffers020 system.caches.network.int_link_buffers021 system.caches.network.int_link_buffers022 system.caches.network.int_link_buffers023 system.caches.network.int_link_buffers024 system.caches.network.int_link_buffers025 system.caches.network.int_link_buffers026 system.caches.network.int_link_buffers027 system.caches.network.int_link_buffers028 system.caches.network.int_link_buffers029 system.caches.network.int_link_buffers030 system.caches.network.int_link_buffers031 system.caches.network.int_link_buffers032 system.caches.network.int_link_buffers033 system.caches.network.int_link_buffers034 system.caches.network.int_link_buffers035 system.caches.network.int_link_buffers036 system.caches.network.int_link_buffers037 system.caches.network.int_link_buffers038 system.caches.network.int_link_buffers039 system.caches.network.int_link_buffers040 system.caches.network.int_link_buffers041 system.caches.network.int_link_buffers042 system.caches.network.int_link_buffers043 system.caches.network.int_link_buffers044 system.caches.network.int_link_buffers045 system.caches.network.int_link_buffers046 system.caches.network.int_link_buffers047 system.caches.network.int_link_buffers048 system.caches.network.int_link_buffers049 system.caches.network.int_link_buffers050 system.caches.network.int_link_buffers051 system.caches.network.int_link_buffers052 system.caches.network.int_link_buffers053 system.caches.network.int_link_buffers054 system.caches.network.int_link_buffers055 system.caches.network.int_link_buffers056 system.caches.network.int_link_buffers057 system.caches.network.int_link_buffers058 system.caches.network.int_link_buffers059 system.caches.network.int_link_buffers060 system.caches.network.int_link_buffers061 system.caches.network.int_link_buffers062 system.caches.network.int_link_buffers063 system.caches.network.int_link_buffers064 system.caches.network.int_link_buffers065 system.caches.network.int_link_buffers066 system.caches.network.int_link_buffers067 system.caches.network.int_link_buffers068 system.caches.network.int_link_buffers069 system.caches.network.int_link_buffers070 system.caches.network.int_link_buffers071 system.caches.network.int_link_buffers072 system.caches.network.int_link_buffers073 system.caches.network.int_link_buffers074 system.caches.network.int_link_buffers075 system.caches.network.int_link_buffers076 system.caches.network.int_link_buffers077 system.caches.network.int_link_buffers078 system.caches.network.int_link_buffers079 system.caches.network.int_link_buffers080 system.caches.network.int_link_buffers081 system.caches.network.int_link_buffers082 system.caches.network.int_link_buffers083 system.caches.network.int_link_buffers084 system.caches.network.int_link_buffers085 system.caches.network.int_link_buffers086 system.caches.network.int_link_buffers087 system.caches.network.int_link_buffers088 system.caches.network.int_link_buffers089 system.caches.network.int_link_buffers090 system.caches.network.int_link_buffers091 system.caches.network.int_link_buffers092 system.caches.network.int_link_buffers093 system.caches.network.int_link_buffers094 system.caches.network.int_link_buffers095 system.caches.network.int_link_buffers096 system.caches.network.int_link_buffers097 system.caches.network.int_link_buffers098 system.caches.network.int_link_buffers099 system.caches.network.int_link_buffers100 system.caches.network.int_link_buffers101 system.caches.network.int_link_buffers102 system.caches.network.int_link_buffers103 system.caches.network.int_link_buffers104 system.caches.network.int_link_buffers105 system.caches.network.int_link_buffers106 system.caches.network.int_link_buffers107 system.caches.network.int_link_buffers108 system.caches.network.int_link_buffers109 system.caches.network.int_link_buffers110 system.caches.network.int_link_buffers111 system.caches.network.int_link_buffers112 system.caches.network.int_link_buffers113 system.caches.network.int_link_buffers114 system.caches.network.int_link_buffers115 system.caches.network.int_link_buffers116 system.caches.network.int_link_buffers117 system.caches.network.int_link_buffers118 system.caches.network.int_link_buffers119
int_links=system.caches.network.int_links00 system.caches.network.int_links01 system.caches.network.int_links02 system.caches.network.int_links03 system.caches.network.int_links04 system.caches.network.int_links05 system.caches.network.int_links06 system.caches.network.int_links07 system.caches.network.int_links08 system.caches.network.int_links09 system.caches.network.int_links10 system.caches.network.int_links11 system.caches.network.int_links12 system.caches.network.int_links13 system.caches.network.int_links14 system.caches.network.int_links15 system.caches.network.int_links16 system.caches.network.int_links17 system.caches.network.int_links18 system.caches.network.int_links19
netifs=
number_of_virtual_networks=3
power_model=
power_state=system.caches.network.power_state
routers=system.caches.network.routers0 system.caches.network.routers1 system.caches.network.routers2 system.caches.network.routers3 system.caches.network.routers4
ruby_system=system.caches
topology=Not Specified
in_port=system.caches.controllers0.requestToDir.out_port system.caches.controllers0.responseToDirOrSibling.out_port system.caches.controllers1.requestToDir.out_port system.caches.controllers1.responseToDirOrSibling.out_port system.caches.controllers2.requestToDir.out_port system.caches.controllers2.responseToDirOrSibling.out_port system.caches.controllers3.requestToDir.out_port system.caches.controllers3.responseToDirOrSibling.out_port system.caches.controllers4.responseToCache.out_port system.caches.controllers4.forwardToCache.out_port
out_port=system.caches.controllers0.forwardFromDir.in_port system.caches.controllers0.responseFromDirOrSibling.in_port system.caches.controllers1.forwardFromDir.in_port system.caches.controllers1.responseFromDirOrSibling.in_port system.caches.controllers2.forwardFromDir.in_port system.caches.controllers2.responseFromDirOrSibling.in_port system.caches.controllers3.forwardFromDir.in_port system.caches.controllers3.responseFromDirOrSibling.in_port system.caches.controllers4.requestFromCache.in_port system.caches.controllers4.responseFromCache.in_port

[system.caches.network.ext_links0]
type=SimpleExtLink
bandwidth_factor=16
eventq_index=0
ext_node=system.caches.controllers0
int_node=system.caches.network.routers0
latency=1
link_id=0
supported_vnets=
weight=1

[system.caches.network.ext_links1]
type=SimpleExtLink
bandwidth_factor=16
eventq_index=0
ext_node=system.caches.controllers1
int_node=system.caches.network.routers1
latency=1
link_id=1
supported_vnets=
weight=1

[system.caches.network.ext_links2]
type=SimpleExtLink
bandwidth_factor=16
eventq_index=0
ext_node=system.caches.controllers2
int_node=system.caches.network.routers2
latency=1
link_id=2
supported_vnets=
weight=1

[system.caches.network.ext_links3]
type=SimpleExtLink
bandwidth_factor=16
eventq_index=0
ext_node=system.caches.controllers3
int_node=system.caches.network.routers3
latency=1
link_id=3
supported_vnets=
weight=1

[system.caches.network.ext_links4]
type=SimpleExtLink
bandwidth_factor=16
eventq_index=0
ext_node=system.caches.controllers4
int_node=system.caches.network.routers4
latency=1
link_id=4
supported_vnets=
weight=1

[system.caches.network.int_link_buffers000]
type=MessageBuffer
allow_zero_latency=false
buffer_size=0
eventq_index=0
ordered=true
randomization=ruby_system

[system.caches.network.int_link_buffers001]
type=MessageBuffer
allow_zero_latency=false
buffer_size=0
eventq_index=0
ordered=true
randomization=ruby_system

[system.caches.network.int_link_buffers002]
type=MessageBuffer
allow_zero_latency=false
buffer_size=0
eventq_index=0
ordered=true
randomization=ruby_system

[system.caches.network.int_link_buffers003]
type=MessageBuffer
allow_zero_latency=false
buffer_size=0
eventq_index=0
ordered=true
randomization=ruby_system

[system.caches.network.int_link_buffers004]
type=MessageBuffer
allow_zero_latency=false
buffer_size=0
eventq_index=0
ordered=true
randomization=ruby_system

[system.caches.network.int_link_buffers005]
type=MessageBuffer
allow_zero_latency=false
buffer_size=0
eventq_index=0
ordered=true
randomization=ruby_system

[system.caches.network.int_link_buffers006]
type=MessageBuffer
allow_zero_latency=false
buffer_size=0
eventq_index=0
ordered=true
randomization=ruby_system

[system.caches.network.int_link_buffers007]
type=MessageBuffer
allow_zero_latency=false
buffer_size=0
eventq_index=0
ordered=true
randomization=ruby_system

[system.caches.network.int_link_buffers008]
type=MessageBuffer
allow_zero_latency=false
buffer_size=0
eventq_index=0
ordered=true
randomization=ruby_system

[system.caches.network.int_link_buffers009]
type=MessageBuffer
allow_zero_latency=false
buffer_size=0
eventq_index=0
ordered=true
randomization=ruby_system

[system.caches.network.int_link_buffers010]
type=MessageBuffer
allow_zero_latency=false
buffer_size=0
eventq_index=0
ordered=true
randomization=ruby_system

[system.caches.network.int_link_buffers011]
type=MessageBuffer
allow_zero_latency=false
buffer_size=0
eventq_index=0
ordered=true
randomization=ruby_system

[system.caches.network.int_link_buffers012]
type=MessageBuffer
allow_zero_latency=false
buffer_size=0
eventq_index=0
ordered=true
randomization=ruby_system

[system.caches.network.int_link_buffers013]
type=MessageBuffer
allow_zero_latency=false
buffer_size=0
eventq_index=0
ordered=true
randomization=ruby_system

[system.caches.network.int_link_buffers014]
type=MessageBuffer
allow_zero_latency=false
buffer_size=0
eventq_index=0
ordered=true
randomization=ruby_system

[system.caches.network.int_link_buffers015]
type=MessageBuffer
allow_zero_latency=false
buffer_size=0
eventq_index=0
ordered=true
randomization=ruby_system

[system.caches.network.int_link_buffers016]
type=MessageBuffer
allow_zero_latency=false
buffer_size=0
eventq_index=0
ordered=true
randomization=ruby_system

[system.caches.network.int_link_buffers017]
type=MessageBuffer
allow_zero_latency=false
buffer_size=0
eventq_index=0
ordered=true
randomization=ruby_system

[system.caches.network.int_link_buffers018]
type=MessageBuffer
allow_zero_latency=false
buffer_size=0
eventq_index=0
ordered=true
randomization=ruby_system

[system.caches.network.int_link_buffers019]
type=MessageBuffer
allow_zero_latency=false
buffer_size=0
eventq_index=0
ordered=true
randomization=ruby_system

[system.caches.network.int_link_buffers020]
type=MessageBuffer
allow_zero_latency=false
buffer_size=0
eventq_index=0
ordered=true
randomization=ruby_system

[system.caches.network.int_link_buffers021]
type=MessageBuffer
allow_zero_latency=false
buffer_size=0
eventq_index=0
ordered=true
randomization=ruby_system

[system.caches.network.int_link_buffers022]
type=MessageBuffer
allow_zero_latency=false
buffer_size=0
eventq_index=0
ordered=true
randomization=ruby_system

[system.caches.network.int_link_buffers023]
type=MessageBuffer
allow_zero_latency=false
buffer_size=0
eventq_index=0
ordered=true
randomization=ruby_system

[system.caches.network.int_link_buffers024]
type=MessageBuffer
allow_zero_latency=false
buffer_size=0
eventq_index=0
ordered=true
randomization=ruby_system

[system.caches.network.int_link_buffers025]
type=MessageBuffer
allow_zero_latency=false
buffer_size=0
eventq_index=0
ordered=true
randomization=ruby_system

[system.caches.network.int_link_buffers026]
type=MessageBuffer
allow_zero_latency=false
buffer_size=0
eventq_index=0
ordered=true
randomization=ruby_system

[system.caches.network.int_link_buffers027]
type=MessageBuffer
allow_zero_latency=false
buffer_size=0
eventq_index=0
ordered=true
randomization=ruby_system

[system.caches.network.int_link_buffers028]
type=MessageBuffer
allow_zero_latency=false
buffer_size=0
eventq_index=0
ordered=true
randomization=ruby_system
